mapping/src/test/resources/reseau_test_6noeuds.xml
<?xml version="1.0" encoding="ISO-8859-1" standalone="no"?>
<network xmlns="http://www.itesla_project.eu/schema/iidm/1_0"
         xmlns:hapc="http://www.itesla_project.eu/schema/iidm/ext/hvdc_angle_droop_active_power_control/1_0"
         xmlns:hopr="http://www.itesla_project.eu/schema/iidm/ext/hvdc_operator_active_power_range/1_0"
         xmlns:ld="http://www.itesla_project.eu/schema/iidm/ext/load_detail/1_0"
         id="Reseau_test_Topase_avec_report_seuils_reduits" caseDate="2015-09-29T09:14:00.000+01:00"
         forecastDistance="0" sourceFormat="NF">
  <substation id="FP.AN" country="FR" tso="RTE">
    <property name="paysCvg" value="FRANCE"/>
    <property name="regionCvg" value="LILLE"/>
    <voltageLevel id="FP.AND1" nominalV="380" lowVoltageLimit="342" highVoltageLimit="418.0001220703125" topologyKind="NODE_BREAKER">
      <nodeBreakerTopology nodeCount="14">
        <busbarSection id="FP.AND1_1" name="1" node="0" v="380" angle="0"/>
        <busbarSection id="FP.AND1_mnv" name="mnv" node="1" v="380" angle="0"/>
        <switch id="FP.AND1_FP.AND1  FVERGE1  1_SC5_0" name="FP.AND1  FVERGE1  1_SC5_0" kind="DISCONNECTOR" retained="false" open="false" node1="0" node2="2"/>
        <switch id="FP.AND1_FP.AND1  FVERGE1  1_SC5_1" name="FP.AND1  FVERGE1  1_SC5_1" kind="DISCONNECTOR" retained="false" open="true" node1="1" node2="2"/>
        <switch id="FP.AND1_FP.AND1  FVERGE1  1_DJ5" name="FP.AND1  FVERGE1  1_DJ5" kind="BREAKER" retained="false" open="false" node1="2" node2="3"/>
        <switch id="FP.AND1_FP.AND1  FVERGE1  2_SC7_0" name="FP.AND1  FVERGE1  2_SC7_0" kind="DISCONNECTOR" retained="false" open="false" node1="0" node2="4"/>
        <switch id="FP.AND1_FP.AND1  FVERGE1  2_SC7_1" name="FP.AND1  FVERGE1  2_SC7_1" kind="DISCONNECTOR" retained="false" open="true" node1="1" node2="4"/>
        <switch id="FP.AND1_FP.AND1  FVERGE1  2_DJ7" name="FP.AND1  FVERGE1  2_DJ7" kind="BREAKER" retained="false" open="false" node1="4" node2="5"/>
        <switch id="FP.AND1_FSSV.O1  FP.AND1  1_SC9_0" name="FSSV.O1  FP.AND1  1_SC9_0" kind="DISCONNECTOR" retained="false" open="false" node1="0" node2="6"/>
        <switch id="FP.AND1_FSSV.O1  FP.AND1  1_SC9_1" name="FSSV.O1  FP.AND1  1_SC9_1" kind="DISCONNECTOR" retained="false" open="true" node1="1" node2="6"/>
        <switch id="FP.AND1_FSSV.O1  FP.AND1  1_DJ9" name="FSSV.O1  FP.AND1  1_DJ9" kind="BREAKER" retained="false" open="false" node1="6" node2="7"/>
        <switch id="FP.AND1_FSSV.O1  FP.AND1  2_SC11_0" name="FSSV.O1  FP.AND1  2_SC11_0" kind="DISCONNECTOR" retained="false" open="false" node1="0" node2="8"/>
        <switch id="FP.AND1_FSSV.O1  FP.AND1  2_SC11_1" name="FSSV.O1  FP.AND1  2_SC11_1" kind="DISCONNECTOR" retained="false" open="true" node1="1" node2="8"/>
        <switch id="FP.AND1_FSSV.O1  FP.AND1  2_DJ11" name="FSSV.O1  FP.AND1  2_DJ11" kind="BREAKER" retained="false" open="false" node1="8" node2="9"/>
        <switch id="FP.AND1_FP.AND1  FTDPRA1  1_SC13_0" name="FP.AND1  FTDPRA1  1_SC13_0" kind="DISCONNECTOR" retained="false" open="false" node1="0" node2="10"/>
        <switch id="FP.AND1_FP.AND1  FTDPRA1  1_SC13_1" name="FP.AND1  FTDPRA1  1_SC13_1" kind="DISCONNECTOR" retained="false" open="true" node1="1" node2="10"/>
        <switch id="FP.AND1_FP.AND1  FTDPRA1  1_DJ13" name="FP.AND1  FTDPRA1  1_DJ13" kind="BREAKER" retained="false" open="false" node1="10" node2="11"/>
        <switch id="FP.AND1__SC14_0" name="_SC14_0" kind="DISCONNECTOR" retained="false" open="false" node1="0" node2="12"/>
        <switch id="FP.AND1__SC14_1" name="_SC14_1" kind="DISCONNECTOR" retained="false" open="true" node1="1" node2="12"/>
        <switch id="FP.AND1__SC15_0" name="_SC15_0" kind="DISCONNECTOR" retained="false" open="true" node1="0" node2="13"/>
        <switch id="FP.AND1__SC15_1" name="_SC15_1" kind="DISCONNECTOR" retained="false" open="false" node1="1" node2="13"/>
        <switch id="FP.AND1_FP.AND1_DJ_OMN" name="FP.AND1_DJ_OMN" kind="BREAKER" retained="false" open="false" node1="12" node2="13"/>
      </nodeBreakerTopology>
    </voltageLevel>
    <voltageLevel id="FTDPRA1" nominalV="380" lowVoltageLimit="342" highVoltageLimit="418.0001220703125" topologyKind="NODE_BREAKER">
      <property name="siteInit" value="FTDPR"/>
      <nodeBreakerTopology nodeCount="14">
        <busbarSection id="FTDPRA1_1" name="1" node="0" v="380" angle="-0.0380914769006283"/>
        <busbarSection id="FTDPRA1_mnv" name="mnv" node="1" v="380" angle="-0.0380914769006283"/>
        <switch id="FTDPRA1_FTDPRA1  FVERGE1  1_SC5_0" name="FTDPRA1  FVERGE1  1_SC5_0" kind="DISCONNECTOR" retained="false" open="false" node1="0" node2="2"/>
        <switch id="FTDPRA1_FTDPRA1  FVERGE1  1_SC5_1" name="FTDPRA1  FVERGE1  1_SC5_1" kind="DISCONNECTOR" retained="false" open="true" node1="1" node2="2"/>
        <switch id="FTDPRA1_FTDPRA1  FVERGE1  1_DJ5" name="FTDPRA1  FVERGE1  1_DJ5" kind="BREAKER" retained="false" open="false" node1="2" node2="3"/>
        <switch id="FTDPRA1_FTDPRA1  FVERGE1  2_SC7_0" name="FTDPRA1  FVERGE1  2_SC7_0" kind="DISCONNECTOR" retained="false" open="false" node1="0" node2="4"/>
        <switch id="FTDPRA1_FTDPRA1  FVERGE1  2_SC7_1" name="FTDPRA1  FVERGE1  2_SC7_1" kind="DISCONNECTOR" retained="false" open="true" node1="1" node2="4"/>
        <switch id="FTDPRA1_FTDPRA1  FVERGE1  2_DJ7" name="FTDPRA1  FVERGE1  2_DJ7" kind="BREAKER" retained="false" open="false" node1="4" node2="5"/>
        <switch id="FTDPRA1_FVALDI1  FTDPRA1  1_SC9_0" name="FVALDI1  FTDPRA1  1_SC9_0" kind="DISCONNECTOR" retained="false" open="false" node1="0" node2="6"/>
        <switch id="FTDPRA1_FVALDI1  FTDPRA1  1_SC9_1" name="FVALDI1  FTDPRA1  1_SC9_1" kind="DISCONNECTOR" retained="false" open="true" node1="1" node2="6"/>
        <switch id="FTDPRA1_FVALDI1  FTDPRA1  1_DJ9" name="FVALDI1  FTDPRA1  1_DJ9" kind="BREAKER" retained="false" open="false" node1="6" node2="7"/>
        <switch id="FTDPRA1_FVALDI1  FTDPRA1  2_SC11_0" name="FVALDI1  FTDPRA1  2_SC11_0" kind="DISCONNECTOR" retained="false" open="false" node1="0" node2="8"/>
        <switch id="FTDPRA1_FVALDI1  FTDPRA1  2_SC11_1" name="FVALDI1  FTDPRA1  2_SC11_1" kind="DISCONNECTOR" retained="false" open="true" node1="1" node2="8"/>
        <switch id="FTDPRA1_FVALDI1  FTDPRA1  2_DJ11" name="FVALDI1  FTDPRA1  2_DJ11" kind="BREAKER" retained="false" open="false" node1="8" node2="9"/>
        <switch id="FTDPRA1_FP.AND1  FTDPRA1  1_SC13_0" name="FP.AND1  FTDPRA1  1_SC13_0" kind="DISCONNECTOR" retained="false" open="false" node1="0" node2="10"/>
        <switch id="FTDPRA1_FP.AND1  FTDPRA1  1_SC13_1" name="FP.AND1  FTDPRA1  1_SC13_1" kind="DISCONNECTOR" retained="false" open="true" node1="1" node2="10"/>
        <switch id="FTDPRA1_FP.AND1  FTDPRA1  1_DJ13" name="FP.AND1  FTDPRA1  1_DJ13" kind="BREAKER" retained="false" open="false" node1="10" node2="11"/>
        <switch id="FTDPRA1__SC14_0" name="_SC14_0" kind="DISCONNECTOR" retained="false" open="false" node1="0" node2="12"/>
        <switch id="FTDPRA1__SC14_1" name="_SC14_1" kind="DISCONNECTOR" retained="false" open="true" node1="1" node2="12"/>
        <switch id="FTDPRA1__SC15_0" name="_SC15_0" kind="DISCONNECTOR" retained="false" open="true" node1="0" node2="13"/>
        <switch id="FTDPRA1__SC15_1" name="_SC15_1" kind="DISCONNECTOR" retained="false" open="false" node1="1" node2="13"/>
        <switch id="FTDPRA1_FTDPRA1_DJ_OMN" name="FTDPRA1_DJ_OMN" kind="BREAKER" retained="false" open="false" node1="12" node2="13"/>
      </nodeBreakerTopology>
    </voltageLevel>
    <twoWindingsTransformer id="FP.AND1  FTDPRA1  1" r="13" x="1" g="0" b="0" ratedU1="380" ratedU2="380" voltageLevelId1="FTDPRA1" node1="11" voltageLevelId2="FP.AND1" node2="11" p1="-95.999614295758562" p2="95.999614295758562">
      <phaseTapChanger lowTapPosition="0" tapPosition="16" regulationMode="CURRENT_LIMITER" regulationValue="600" regulating="true">
        <terminalRef id="FP.AND1  FTDPRA1  1" side="ONE"/>
        <step r="0.00067052996018901467" x="0.00066161161521449685" g="0" b="0" rho="1" alpha="-9.1672477722167969"/>
        <step r="0.00067052996018901467" x="0.00066161161521449685" g="0" b="0" rho="1" alpha="-0.15"/>
        <step r="0.00067052996018901467" x="0.00066161161521449685" g="0" b="0" rho="1" alpha="-0.14"/>
        <step r="0.00067052996018901467" x="0.00066161161521449685" g="0" b="0" rho="1" alpha="-0.13"/>
        <step r="0.00067052996018901467" x="0.00066161161521449685" g="0" b="0" rho="1" alpha="-0.12"/>
        <step r="0.00067052996018901467" x="0.00066161161521449685" g="0" b="0" rho="1" alpha="-0.11"/>
        <step r="0.00067052996018901467" x="0.00066161161521449685" g="0" b="0" rho="1" alpha="-0.1"/>
        <step r="0.00067052996018901467" x="0.00066161161521449685" g="0" b="0" rho="1" alpha="-0.09"/>
        <step r="0.00067052996018901467" x="0.00066161161521449685" g="0" b="0" rho="1" alpha="-0.08"/>
        <step r="0.00067052996018901467" x="0.00066161161521449685" g="0" b="0" rho="1" alpha="-0.07"/>
        <step r="0.00067052996018901467" x="0.00066161161521449685" g="0" b="0" rho="1" alpha="-0.06"/>
        <step r="0.00067052996018901467" x="0.00066161161521449685" g="0" b="0" rho="1" alpha="-0.05"/>
        <step r="0.00067052996018901467" x="0.00066161161521449685" g="0" b="0" rho="1" alpha="-0.04"/>
        <step r="0.00067052996018901467" x="0.00066161161521449685" g="0" b="0" rho="1" alpha="-0.03"/>
        <step r="0.00067052996018901467" x="0.00066161161521449685" g="0" b="0" rho="1" alpha="-0.02"/>
        <step r="0.00067052996018901467" x="0.00066161161521449685" g="0" b="0" rho="1" alpha="-0.01"/>
        <step r="0.00067052996018901467" x="0.00066161161521449685" g="0" b="0" rho="1" alpha="0"/>
        <step r="0.00067052996018901467" x="0.00066161161521449685" g="0" b="0" rho="1" alpha="0.01"/>
        <step r="0.00067052996018901467" x="0.00066161161521449685" g="0" b="0" rho="1" alpha="0.02"/>
        <step r="0.00067052996018901467" x="0.00066161161521449685" g="0" b="0" rho="1" alpha="0.03"/>
        <step r="0.00067052996018901467" x="0.00066161161521449685" g="0" b="0" rho="1" alpha="0.04"/>
        <step r="0.00067052996018901467" x="0.00066161161521449685" g="0" b="0" rho="1" alpha="0.05"/>
        <step r="0.00067052996018901467" x="0.00066161161521449685" g="0" b="0" rho="1" alpha="0.06"/>
        <step r="0.00067052996018901467" x="0.00066161161521449685" g="0" b="0" rho="1" alpha="0.07"/>
        <step r="0.00067052996018901467" x="0.00066161161521449685" g="0" b="0" rho="1" alpha="0.08"/>
        <step r="0.00067052996018901467" x="0.00066161161521449685" g="0" b="0" rho="1" alpha="0.09"/>
        <step r="0.00067052996018901467" x="0.00066161161521449685" g="0" b="0" rho="1" alpha="0.1"/>
        <step r="0.00067052996018901467" x="0.00066161161521449685" g="0" b="0" rho="1" alpha="0.11"/>
        <step r="0.00067052996018901467" x="0.00066161161521449685" g="0" b="0" rho="1" alpha="0.12"/>
        <step r="0.00067052996018901467" x="0.00066161161521449685" g="0" b="0" rho="1" alpha="0.13"/>
        <step r="0.00067052996018901467" x="0.00066161161521449685" g="0" b="0" rho="1" alpha="0.14"/>
        <step r="0.00067052996018901467" x="0.00066161161521449685" g="0" b="0" rho="1" alpha="0.15"/>
        <step r="0.00067052996018901467" x="0.00066161161521449685" g="0" b="0" rho="1" alpha="9.1672477722167969"/>
      </phaseTapChanger>
      <currentLimits1 permanentLimit="400"/>
      <currentLimits2 permanentLimit="400">
        <temporaryLimit name="IT20" acceptableDuration="1200" value="450.00003051757812"/>
        <temporaryLimit name="IT10" acceptableDuration="600" value="500.00003051757812"/>
        <temporaryLimit name="IT0.0166667" acceptableDuration="1"/>
      </currentLimits2>
    </twoWindingsTransformer>
  </substation>
  <substation id="FS.BI" country="FR" tso="RTE">
    <property name="paysCvg" value="FRANCE"/>
    <property name="regionCvg" value="LILLE"/>
    <voltageLevel id="FS.BIS1" nominalV="380" lowVoltageLimit="342" highVoltageLimit="418.0001220703125" topologyKind="NODE_BREAKER">
      <nodeBreakerTopology nodeCount="12">
        <busbarSection id="FS.BIS1_1" name="1" node="0" v="380" angle="-0.01904573845031415"/>
        <busbarSection id="FS.BIS1_mnv" name="mnv" node="1" v="380" angle="-0.01904573845031415"/>
        <switch id="FS.BIS1_FS.BIS1  FVALDI1  1_SC5_0" name="FS.BIS1  FVALDI1  1_SC5_0" kind="DISCONNECTOR" retained="false" open="false" node1="0" node2="2"/>
        <switch id="FS.BIS1_FS.BIS1  FVALDI1  1_SC5_1" name="FS.BIS1  FVALDI1  1_SC5_1" kind="DISCONNECTOR" retained="false" open="true" node1="1" node2="2"/>
        <switch id="FS.BIS1_FS.BIS1  FVALDI1  1_DJ5" name="FS.BIS1  FVALDI1  1_DJ5" kind="BREAKER" retained="false" open="false" node1="2" node2="3"/>
        <switch id="FS.BIS1_FS.BIS1  FVALDI1  2_SC7_0" name="FS.BIS1  FVALDI1  2_SC7_0" kind="DISCONNECTOR" retained="false" open="true" node1="0" node2="4"/>
        <switch id="FS.BIS1_FS.BIS1  FVALDI1  2_SC7_1" name="FS.BIS1  FVALDI1  2_SC7_1" kind="DISCONNECTOR" retained="false" open="false" node1="1" node2="4"/>
        <switch id="FS.BIS1_FS.BIS1  FVALDI1  2_DJ7" name="FS.BIS1  FVALDI1  2_DJ7" kind="BREAKER" retained="false" open="false" node1="4" node2="5"/>
        <switch id="FS.BIS1__SC12_0" name="_SC12_0" kind="DISCONNECTOR" retained="false" open="false" node1="0" node2="6"/>
        <switch id="FS.BIS1__SC12_1" name="_SC12_1" kind="DISCONNECTOR" retained="false" open="true" node1="1" node2="6"/>
        <switch id="FS.BIS1__SC13_0" name="_SC13_0" kind="DISCONNECTOR" retained="false" open="true" node1="0" node2="7"/>
        <switch id="FS.BIS1__SC13_1" name="_SC13_1" kind="DISCONNECTOR" retained="false" open="false" node1="1" node2="7"/>
        <switch id="FS.BIS1_FS.BIS1_DJ_OMN" name="FS.BIS1_DJ_OMN" kind="BREAKER" retained="true" open="false" node1="6" node2="7"/>
        <switch id="FS.BIS1_Disj FS.BIS1 FSSV.O1 1" name="Disj FS.BIS1 FSSV.O1 1" kind="BREAKER" retained="false" open="false" node1="8" node2="9"/>
        <switch id="FS.BIS1_Sect 1 FS.BIS1 FSSV.O1 1" name="Sect 1 FS.BIS1 FSSV.O1 1" kind="DISCONNECTOR" retained="false" open="false" node1="9" node2="0"/>
        <switch id="FS.BIS1_Sect mnv FS.BIS1 FSSV.O1 1" name="Sect mnv FS.BIS1 FSSV.O1 1" kind="DISCONNECTOR" retained="false" open="true" node1="9" node2="1"/>
        <switch id="FS.BIS1_Disj FS.BIS1 FSSV.O1 2" name="Disj FS.BIS1 FSSV.O1 2" kind="BREAKER" retained="false" open="false" node1="10" node2="11"/>
        <switch id="FS.BIS1_Sect 1 FS.BIS1 FSSV.O1 2" name="Sect 1 FS.BIS1 FSSV.O1 2" kind="DISCONNECTOR" retained="false" open="true" node1="11" node2="0"/>
        <switch id="FS.BIS1_Sect mnv FS.BIS1 FSSV.O1 2" name="Sect mnv FS.BIS1 FSSV.O1 2" kind="DISCONNECTOR" retained="false" open="false" node1="11" node2="1"/>
      </nodeBreakerTopology>
    </voltageLevel>
  </substation>
  <substation id="FSSV." country="FR" tso="RTE">
    <property name="paysCvg" value="FRANCE"/>
    <property name="regionCvg" value="LILLE"/>
    <voltageLevel id="FSSV.O1" nominalV="380" lowVoltageLimit="342" highVoltageLimit="418.0001220703125" topologyKind="NODE_BREAKER">
      <nodeBreakerTopology nodeCount="22">
        <busbarSection id="FSSV.O1_1" name="1" node="0" v="380" angle="0.038091349365863954"/>
        <busbarSection id="FSSV.O1_mnv" name="mnv" node="1" v="380" angle="0.038091349365863954"/>
        <switch id="FSSV.O1_FSSV.O11_G_SC3_0" name="FSSV.O11_G_SC3_0" kind="DISCONNECTOR" retained="false" open="false" node1="0" node2="2"/>
        <switch id="FSSV.O1_FSSV.O11_G_SC3_1" name="FSSV.O11_G_SC3_1" kind="DISCONNECTOR" retained="false" open="true" node1="1" node2="2"/>
        <switch id="FSSV.O1_FSSV.O11_G_DJ3" name="FSSV.O11_G_DJ3" kind="BREAKER" retained="false" open="false" node1="2" node2="3"/>
        <switch id="FSSV.O1_FSSV.O1  FP.AND1  1_SC5_0" name="FSSV.O1  FP.AND1  1_SC5_0" kind="DISCONNECTOR" retained="false" open="true" node1="0" node2="4"/>
        <switch id="FSSV.O1_FSSV.O1  FP.AND1  1_SC5_1" name="FSSV.O1  FP.AND1  1_SC5_1" kind="DISCONNECTOR" retained="false" open="false" node1="1" node2="4"/>
        <switch id="FSSV.O1_FSSV.O1  FP.AND1  1_DJ5" name="FSSV.O1  FP.AND1  1_DJ5" kind="BREAKER" retained="false" open="false" node1="4" node2="5"/>
        <switch id="FSSV.O1_FSSV.O1  FP.AND1  2_SC7_0" name="FSSV.O1  FP.AND1  2_SC7_0" kind="DISCONNECTOR" retained="false" open="false" node1="0" node2="6"/>
        <switch id="FSSV.O1_FSSV.O1  FP.AND1  2_SC7_1" name="FSSV.O1  FP.AND1  2_SC7_1" kind="DISCONNECTOR" retained="false" open="true" node1="1" node2="6"/>
        <switch id="FSSV.O1_FSSV.O1  FP.AND1  2_DJ7" name="FSSV.O1  FP.AND1  2_DJ7" kind="BREAKER" retained="false" open="false" node1="6" node2="7"/>
        <switch id="FSSV.O1__SC12_0" name="_SC12_0" kind="DISCONNECTOR" retained="false" open="false" node1="0" node2="8"/>
        <switch id="FSSV.O1__SC12_1" name="_SC12_1" kind="DISCONNECTOR" retained="false" open="true" node1="1" node2="8"/>
        <switch id="FSSV.O1__SC13_0" name="_SC13_0" kind="DISCONNECTOR" retained="false" open="true" node1="0" node2="9"/>
        <switch id="FSSV.O1__SC13_1" name="_SC13_1" kind="DISCONNECTOR" retained="false" open="false" node1="1" node2="9"/>
        <switch id="FSSV.O1_FSSV.O1_DJ_OMN" name="FSSV.O1_DJ_OMN" kind="BREAKER" retained="true" open="false" node1="8" node2="9"/>
        <switch id="FSSV.O1_Disj HVDC1" name="Disj HVDC1" kind="BREAKER" retained="false" open="false" node1="10" node2="11"/>
        <switch id="FSSV.O1_Sect 1 HVDC1" name="Sect 1 HVDC1" kind="DISCONNECTOR" retained="false" open="true" node1="11" node2="0"/>
        <switch id="FSSV.O1_Sect mnv HVDC1" name="Sect mnv HVDC1" kind="DISCONNECTOR" retained="false" open="false" node1="11" node2="1"/>
        <switch id="FSSV.O1_Disj HVDC2" name="Disj HVDC2" kind="BREAKER" retained="false" open="false" node1="12" node2="13"/>
        <switch id="FSSV.O1_Sect 1 HVDC2" name="Sect 1 HVDC2" kind="DISCONNECTOR" retained="false" open="false" node1="13" node2="0"/>
        <switch id="FSSV.O1_Sect mnv HVDC2" name="Sect mnv HVDC2" kind="DISCONNECTOR" retained="false" open="true" node1="13" node2="1"/>
        <switch id="FSSV.O1_Disj FS.BIS1 FSSV.O1 1" name="Disj FS.BIS1 FSSV.O1 1" kind="BREAKER" retained="false" open="false" node1="14" node2="15"/>
        <switch id="FSSV.O1_Sect 1 FS.BIS1 FSSV.O1 1" name="Sect 1 FS.BIS1 FSSV.O1 1" kind="DISCONNECTOR" retained="false" open="true" node1="15" node2="0"/>
        <switch id="FSSV.O1_Sect mnv FS.BIS1 FSSV.O1 1" name="Sect mnv FS.BIS1 FSSV.O1 1" kind="DISCONNECTOR" retained="false" open="false" node1="15" node2="1"/>
        <switch id="FSSV.O1_Disj FS.BIS1 FSSV.O1 2" name="Disj FS.BIS1 FSSV.O1 2" kind="BREAKER" retained="false" open="false" node1="16" node2="17"/>
        <switch id="FSSV.O1_Sect 1 FS.BIS1 FSSV.O1 2" name="Sect 1 FS.BIS1 FSSV.O1 2" kind="DISCONNECTOR" retained="false" open="false" node1="17" node2="0"/>
        <switch id="FSSV.O1_Sect mnv FS.BIS1 FSSV.O1 2" name="Sect mnv FS.BIS1 FSSV.O1 2" kind="DISCONNECTOR" retained="false" open="true" node1="17" node2="1"/>
        <switch id="FSSV.O1_Disj FSSV.O11_L" name="Disj FSSV.O11_L" kind="BREAKER" retained="false" open="false" node1="18" node2="19"/>
        <switch id="FSSV.O1_Sect 1 FSSV.O11_L" name="Sect 1 FSSV.O11_L" kind="DISCONNECTOR" retained="false" open="false" node1="19" node2="0"/>
        <switch id="FSSV.O1_Sect mnv FSSV.O11_L" name="Sect mnv FSSV.O11_L" kind="DISCONNECTOR" retained="false" open="true" node1="19" node2="1"/>
        <switch id="FSSV.O1_Disj FSSV.O12_G" name="Disj FSSV.O12_G" kind="BREAKER" retained="false" open="false" node1="20" node2="21"/>
        <switch id="FSSV.O1_Sect 1 FSSV.O12_G" name="Sect 1 FSSV.O12_G" kind="DISCONNECTOR" retained="false" open="true" node1="21" node2="0"/>
        <switch id="FSSV.O1_Sect mnv FSSV.O12_G" name="Sect mnv FSSV.O12_G" kind="DISCONNECTOR" retained="false" open="false" node1="21" node2="1"/>
      </nodeBreakerTopology>
      <generator id="FSSV.O11_G" energySource="THERMAL" minP="0" maxP="500" voltageRegulatorOn="true" targetP="480.0" targetQ="2.3523099422454834" targetV="406.45004272460938" node="3" p="-480">
        <property name="genreCvg" value="CHARBON"/>
        <reactiveCapabilityCurve>
          <point p="0" minQ="-200" maxQ="200"/>
          <point p="2000" minQ="-200" maxQ="200"/>
        </reactiveCapabilityCurve>
      </generator>
      <generator id="FSSV.O12_G" energySource="THERMAL" minP="0" maxP="500" voltageRegulatorOn="true" targetP="480.0" targetQ="2.3523099422454834" targetV="406.45004272460938" node="20" p="-480">
        <property name="genreCvg" value="CHARBON"/>
        <reactiveCapabilityCurve>
          <point p="0" minQ="-200" maxQ="200"/>
          <point p="2000" minQ="-200" maxQ="200"/>
        </reactiveCapabilityCurve>
      </generator>
      <load id="FSSV.O11_L" loadType="UNDEFINED" p0="480" q0="4.8000001907348633" node="18" p="480"/>
      <vscConverterStation id="FSSV.O1_FSSV.O1_HVDC1" name="FSSV.O1_HVDC1" voltageRegulatorOn="false" lossFactor="2" voltageSetpoint="406" reactivePowerSetpoint="0" node="10" p="0">
        <reactiveCapabilityCurve>
          <point p="-1011" minQ="-300" maxQ="300"/>
          <point p="1011" minQ="-300" maxQ="300"/>
        </reactiveCapabilityCurve>
      </vscConverterStation>
      <vscConverterStation id="FSSV.O1_FSSV.O1_HVDC2" name="FSSV.O1_HVDC2" voltageRegulatorOn="false" lossFactor="2" voltageSetpoint="406" reactivePowerSetpoint="0" node="12" p="0">
        <reactiveCapabilityCurve>
          <point p="-1011" minQ="-300" maxQ="300"/>
          <point p="1011" minQ="-300" maxQ="300"/>
        </reactiveCapabilityCurve>
      </vscConverterStation>
    </voltageLevel>
  </substation>
  <substation id="FVALD" country="FR" tso="RTE">
    <property name="paysCvg" value="FRANCE"/>
    <property name="regionCvg" value="LILLE"/>
    <voltageLevel id="FVALDI1" nominalV="380" lowVoltageLimit="342" highVoltageLimit="418.0001220703125" topologyKind="NODE_BREAKER">
      <nodeBreakerTopology nodeCount="32">
        <busbarSection id="FVALDI1_1" name="1" node="0" v="380" angle="-0.076182826266492268"/>
        <busbarSection id="FVALDI1_mnv" name="mnv" node="1" v="380" angle="-0.076182826266492268"/>
        <switch id="FVALDI1_FVALDI11_G_SC3_0" name="FVALDI11_G_SC3_0" kind="DISCONNECTOR" retained="false" open="false" node1="0" node2="2"/>
        <switch id="FVALDI1_FVALDI11_G_SC3_1" name="FVALDI11_G_SC3_1" kind="DISCONNECTOR" retained="false" open="true" node1="1" node2="2"/>
        <switch id="FVALDI1_FVALDI11_G_DJ3" name="FVALDI11_G_DJ3" kind="BREAKER" retained="false" open="false" node1="2" node2="3"/>
        <switch id="FVALDI1_FS.BIS1  FVALDI1  1_SC5_0" name="FS.BIS1  FVALDI1  1_SC5_0" kind="DISCONNECTOR" retained="false" open="false" node1="0" node2="4"/>
        <switch id="FVALDI1_FS.BIS1  FVALDI1  1_SC5_1" name="FS.BIS1  FVALDI1  1_SC5_1" kind="DISCONNECTOR" retained="false" open="true" node1="1" node2="4"/>
        <switch id="FVALDI1_FS.BIS1  FVALDI1  1_DJ5" name="FS.BIS1  FVALDI1  1_DJ5" kind="BREAKER" retained="false" open="false" node1="4" node2="5"/>
        <switch id="FVALDI1_FS.BIS1  FVALDI1  2_SC7_0" name="FS.BIS1  FVALDI1  2_SC7_0" kind="DISCONNECTOR" retained="false" open="true" node1="0" node2="6"/>
        <switch id="FVALDI1_FS.BIS1  FVALDI1  2_SC7_1" name="FS.BIS1  FVALDI1  2_SC7_1" kind="DISCONNECTOR" retained="false" open="false" node1="1" node2="6"/>
        <switch id="FVALDI1_FS.BIS1  FVALDI1  2_DJ7" name="FS.BIS1  FVALDI1  2_DJ7" kind="BREAKER" retained="false" open="false" node1="6" node2="7"/>
        <switch id="FVALDI1_FVALDI1  FTDPRA1  1_SC9_0" name="FVALDI1  FTDPRA1  1_SC9_0" kind="DISCONNECTOR" retained="false" open="false" node1="0" node2="8"/>
        <switch id="FVALDI1_FVALDI1  FTDPRA1  1_SC9_1" name="FVALDI1  FTDPRA1  1_SC9_1" kind="DISCONNECTOR" retained="false" open="true" node1="1" node2="8"/>
        <switch id="FVALDI1_FVALDI1  FTDPRA1  1_DJ9" name="FVALDI1  FTDPRA1  1_DJ9" kind="BREAKER" retained="false" open="false" node1="8" node2="9"/>
        <switch id="FVALDI1_FVALDI1  FTDPRA1  2_SC11_0" name="FVALDI1  FTDPRA1  2_SC11_0" kind="DISCONNECTOR" retained="false" open="true" node1="0" node2="10"/>
        <switch id="FVALDI1_FVALDI1  FTDPRA1  2_SC11_1" name="FVALDI1  FTDPRA1  2_SC11_1" kind="DISCONNECTOR" retained="false" open="false" node1="1" node2="10"/>
        <switch id="FVALDI1_FVALDI1  FTDPRA1  2_DJ11" name="FVALDI1  FTDPRA1  2_DJ11" kind="BREAKER" retained="false" open="false" node1="10" node2="11"/>
        <switch id="FVALDI1__SC12_0" name="_SC12_0" kind="DISCONNECTOR" retained="false" open="false" node1="0" node2="12"/>
        <switch id="FVALDI1__SC12_1" name="_SC12_1" kind="DISCONNECTOR" retained="false" open="true" node1="1" node2="12"/>
        <switch id="FVALDI1__SC13_0" name="_SC13_0" kind="DISCONNECTOR" retained="false" open="true" node1="0" node2="13"/>
        <switch id="FVALDI1__SC13_1" name="_SC13_1" kind="DISCONNECTOR" retained="false" open="false" node1="1" node2="13"/>
        <switch id="FVALDI1_FVALDI1_DJ_OMN" name="FVALDI1_DJ_OMN" kind="BREAKER" retained="true" open="false" node1="12" node2="13"/>
        <switch id="FVALDI1_Disj HVDC1" name="Disj HVDC1" kind="BREAKER" retained="false" open="false" node1="14" node2="15"/>
        <switch id="FVALDI1_Sect 1 HVDC1" name="Sect 1 HVDC1" kind="DISCONNECTOR" retained="false" open="false" node1="15" node2="0"/>
        <switch id="FVALDI1_Sect mnv HVDC1" name="Sect mnv HVDC1" kind="DISCONNECTOR" retained="false" open="true" node1="15" node2="1"/>
        <switch id="FVALDI1_Disj HVDC2" name="Disj HVDC2" kind="BREAKER" retained="false" open="false" node1="16" node2="17"/>
        <switch id="FVALDI1_Sect 1 HVDC2" name="Sect 1 HVDC2" kind="DISCONNECTOR" retained="false" open="false" node1="17" node2="0"/>
        <switch id="FVALDI1_Sect mnv HVDC2" name="Sect mnv HVDC2" kind="DISCONNECTOR" retained="false" open="true" node1="17" node2="1"/>
        <switch id="FVALDI1_Disj FVALDI11_L" name="Disj FVALDI11_L" kind="BREAKER" retained="false" open="false" node1="18" node2="19"/>
        <switch id="FVALDI1_Sect 1 FVALDI11_L" name="Sect 1 FVALDI11_L" kind="DISCONNECTOR" retained="false" open="false" node1="19" node2="0"/>
        <switch id="FVALDI1_Sect mnv FVALDI11_L" name="Sect mnv FVALDI11_L" kind="DISCONNECTOR" retained="false" open="true" node1="19" node2="1"/>
        <switch id="FVALDI1_Disj FVALDI11_L2" name="Disj FVALDI11_L2" kind="BREAKER" retained="false" open="false" node1="20" node2="21"/> 
        <switch id="FVALDI1_Sect 1 FVALDI11_L2" name="Sect 1 FVALDI11_L2" kind="DISCONNECTOR" retained="false" open="true" node1="21" node2="0"/>
        <switch id="FVALDI1_Sect mnv FVALDI11_L2" name="Sect mnv FVALDI11_L2" kind="DISCONNECTOR" retained="false" open="false" node1="21" node2="1"/>
        <switch id="FVALDI1_FVALDI12_G_SC3_0" name="FVALDI12_G_SC3_0" kind="DISCONNECTOR" retained="false" open="false" node1="0" node2="22"/>
        <switch id="FVALDI1_FVALDI12_G_SC3_1" name="FVALDI12_G_SC3_1" kind="DISCONNECTOR" retained="false" open="true" node1="1" node2="22"/>
        <switch id="FVALDI1_FVALDI12_G_DJ3" name="FVALDI12_G_DJ3" kind="BREAKER" retained="false" open="false" node1="22" node2="23"/>
        <switch id="FVALDI1_FVALDI13_G_SC3_0" name="FVALDI13_G_SC3_0" kind="DISCONNECTOR" retained="false" open="false" node1="0" node2="24"/>
        <switch id="FVALDI1_FVALDI13_G_SC3_1" name="FVALDI13_G_SC3_1" kind="DISCONNECTOR" retained="false" open="true" node1="1" node2="24"/>
        <switch id="FVALDI1_FVALDI13_G_DJ3" name="FVALDI13_G_DJ3" kind="BREAKER" retained="false" open="false" node1="24" node2="25"/>
        <switch id="FVALDI1_FVALDI14_G_SC3_0" name="FVALDI14_G_SC3_0" kind="DISCONNECTOR" retained="false" open="false" node1="0" node2="26"/>
        <switch id="FVALDI1_FVALDI14_G_SC3_1" name="FVALDI14_G_SC3_1" kind="DISCONNECTOR" retained="false" open="true" node1="1" node2="26"/>
        <switch id="FVALDI1_FVALDI14_G_DJ3" name="FVALDI14_G_DJ3" kind="BREAKER" retained="false" open="false" node1="26" node2="27"/>
        <switch id="FVALDI1_FVALDI15_G_SC3_0" name="FVALDI15_G_SC3_0" kind="DISCONNECTOR" retained="false" open="false" node1="0" node2="28"/>
        <switch id="FVALDI1_FVALDI15_G_SC3_1" name="FVALDI15_G_SC3_1" kind="DISCONNECTOR" retained="false" open="true" node1="1" node2="28"/>
        <switch id="FVALDI1_FVALDI15_G_DJ3" name="FVALDI15_G_DJ3" kind="BREAKER" retained="false" open="false" node1="28" node2="29"/>
        <switch id="FVALDI1_FVALDI16_G_SC3_0" name="FVALDI16_G_SC3_0" kind="DISCONNECTOR" retained="false" open="false" node1="0" node2="30"/>
        <switch id="FVALDI1_FVALDI16_G_SC3_1" name="FVALDI16_G_SC3_1" kind="DISCONNECTOR" retained="false" open="true" node1="1" node2="30"/>
        <switch id="FVALDI1_FVALDI16_G_DJ3" name="FVALDI16_G_DJ3" kind="BREAKER" retained="false" open="true" node1="30" node2="31"/>
     </nodeBreakerTopology>
      <generator id="FVALDI11_G" energySource="THERMAL" minP="0" maxP="2000" voltageRegulatorOn="true" targetP="0" targetQ="6.4549798965454102" targetV="406.45004272460938" node="3" p="-0">
        <property name="genreCvg" value="CHARBON"/>
        <reactiveCapabilityCurve>
          <point p="0" minQ="-200" maxQ="200"/>
          <point p="2500" minQ="-200" maxQ="200"/>
        </reactiveCapabilityCurve>
      </generator>
      <generator id="FVALDI12_G" energySource="THERMAL" minP="-100" maxP="2500" voltageRegulatorOn="true" targetP="0" targetQ="6.4549798965454102" targetV="406.45004272460938" node="23" p="-0">
        <property name="genreCvg" value="CHARBON"/>
        <reactiveCapabilityCurve>
          <point p="0" minQ="-200" maxQ="200"/>
          <point p="2500" minQ="-200" maxQ="200"/>
        </reactiveCapabilityCurve>
      </generator>
      <generator id="FVALDI13_G" energySource="THERMAL" minP="500" maxP="1000" voltageRegulatorOn="true" targetP="0" targetQ="6.4549798965454102" targetV="406.45004272460938" node="25" p="-0">
        <property name="genreCvg" value="CHARBON"/>
        <reactiveCapabilityCurve>
          <point p="0" minQ="-200" maxQ="200"/>
          <point p="2500" minQ="-200" maxQ="200"/>
        </reactiveCapabilityCurve>
      </generator>
      <generator id="FVALDI14_G" energySource="THERMAL" minP="-1000" maxP="-1000" voltageRegulatorOn="true" targetP="0" targetQ="6.4549798965454102" targetV="406.45004272460938" node="27" p="-0">
        <property name="genreCvg" value="CHARBON"/>
        <reactiveCapabilityCurve>
          <point p="0" minQ="-200" maxQ="200"/>
          <point p="2500" minQ="-200" maxQ="200"/>
        </reactiveCapabilityCurve>
      </generator>
      <generator id="FVALDI15_G" energySource="THERMAL" minP="0" maxP="0" voltageRegulatorOn="true" targetP="0" targetQ="6.4549798965454102" targetV="406.45004272460938" node="29" p="-0">
        <property name="genreCvg" value="CHARBON"/>
        <reactiveCapabilityCurve>
          <point p="0" minQ="-200" maxQ="200"/>
          <point p="2500" minQ="-200" maxQ="200"/>
        </reactiveCapabilityCurve>
      </generator>
      <generator id="FVALDI16_G" energySource="THERMAL" minP="0" maxP="0" voltageRegulatorOn="true" targetP="0" targetQ="6.4549798965454102" targetV="406.45004272460938" node="31" p="-0">
        <property name="genreCvg" value="CHARBON"/>
        <reactiveCapabilityCurve>
          <point p="0" minQ="-200" maxQ="200"/>
          <point p="2500" minQ="-200" maxQ="200"/>
        </reactiveCapabilityCurve>
      </generator>
      <load id="FVALDI11_L" loadType="UNDEFINED" p0="470" q0="4.8000001907348633" node="18" p="480"/>
      <load id="FVALDI11_L2" loadType="UNDEFINED" p0="10" q0="4.8000001907348633" node="20" p="0"/>
      <vscConverterStation id="FVALDI1_FVALDI1_HVDC1" name="FVALDI1_HVDC1" voltageRegulatorOn="false" lossFactor="2" voltageSetpoint="406" reactivePowerSetpoint="0" node="14" p="0">
        <reactiveCapabilityCurve>
          <point p="-1011" minQ="-300" maxQ="300"/>
          <point p="1011" minQ="-300" maxQ="300"/>
        </reactiveCapabilityCurve>
      </vscConverterStation>
      <vscConverterStation id="FVALDI1_FVALDI1_HVDC2" name="FVALDI1_HVDC2" voltageRegulatorOn="false" lossFactor="2" voltageSetpoint="406" reactivePowerSetpoint="0" node="16" p="0">
        <reactiveCapabilityCurve>
          <point p="-1011" minQ="-300" maxQ="300"/>
          <point p="1011" minQ="-300" maxQ="300"/>
        </reactiveCapabilityCurve>
      </vscConverterStation>
    </voltageLevel>
  </substation>
  <substation id="FVERG" country="FR" tso="RTE">
    <property name="paysCvg" value="FRANCE"/>
    <property name="regionCvg" value="LILLE"/>
    <voltageLevel id="FVERGE1" nominalV="380" lowVoltageLimit="342" highVoltageLimit="418.0001220703125" topologyKind="NODE_BREAKER">
      <nodeBreakerTopology nodeCount="14">
        <busbarSection id="FVERGE1_1" name="1" node="0" v="380" angle="-0.01904573845031415"/>
        <busbarSection id="FVERGE1_mnv" name="mnv" node="1" v="380" angle="-0.01904573845031415"/>
        <switch id="FVERGE1_FVERGE11_G_SC3_0" name="FVERGE11_G_SC3_0" kind="DISCONNECTOR" retained="false" open="false" node1="0" node2="2"/>
        <switch id="FVERGE1_FVERGE11_G_SC3_1" name="FVERGE11_G_SC3_1" kind="DISCONNECTOR" retained="false" open="false" node1="1" node2="2"/>
        <switch id="FVERGE1_FVERGE11_G_DJ3" name="FVERGE11_G_DJ3" kind="BREAKER" retained="false" open="false" node1="2" node2="3"/>
        <switch id="FVERGE1_FP.AND1  FVERGE1  1_SC5_0" name="FP.AND1  FVERGE1  1_SC5_0" kind="DISCONNECTOR" retained="false" open="false" node1="0" node2="4"/>
        <switch id="FVERGE1_FP.AND1  FVERGE1  1_SC5_1" name="FP.AND1  FVERGE1  1_SC5_1" kind="DISCONNECTOR" retained="false" open="true" node1="1" node2="4"/>
        <switch id="FVERGE1_FP.AND1  FVERGE1  1_DJ5" name="FP.AND1  FVERGE1  1_DJ5" kind="BREAKER" retained="false" open="false" node1="4" node2="5"/>
        <switch id="FVERGE1_FP.AND1  FVERGE1  2_SC7_0" name="FP.AND1  FVERGE1  2_SC7_0" kind="DISCONNECTOR" retained="false" open="false" node1="0" node2="6"/>
        <switch id="FVERGE1_FP.AND1  FVERGE1  2_SC7_1" name="FP.AND1  FVERGE1  2_SC7_1" kind="DISCONNECTOR" retained="false" open="true" node1="1" node2="6"/>
        <switch id="FVERGE1_FP.AND1  FVERGE1  2_DJ7" name="FP.AND1  FVERGE1  2_DJ7" kind="BREAKER" retained="false" open="false" node1="6" node2="7"/>
        <switch id="FVERGE1_FTDPRA1  FVERGE1  1_SC9_0" name="FTDPRA1  FVERGE1  1_SC9_0" kind="DISCONNECTOR" retained="false" open="false" node1="0" node2="8"/>
        <switch id="FVERGE1_FTDPRA1  FVERGE1  1_SC9_1" name="FTDPRA1  FVERGE1  1_SC9_1" kind="DISCONNECTOR" retained="false" open="true" node1="1" node2="8"/>
        <switch id="FVERGE1_FTDPRA1  FVERGE1  1_DJ9" name="FTDPRA1  FVERGE1  1_DJ9" kind="BREAKER" retained="false" open="false" node1="8" node2="9"/>
        <switch id="FVERGE1_FTDPRA1  FVERGE1  2_SC11_0" name="FTDPRA1  FVERGE1  2_SC11_0" kind="DISCONNECTOR" retained="false" open="false" node1="0" node2="10"/>
        <switch id="FVERGE1_FTDPRA1  FVERGE1  2_SC11_1" name="FTDPRA1  FVERGE1  2_SC11_1" kind="DISCONNECTOR" retained="false" open="true" node1="1" node2="10"/>
        <switch id="FVERGE1_FTDPRA1  FVERGE1  2_DJ11" name="FTDPRA1  FVERGE1  2_DJ11" kind="BREAKER" retained="false" open="false" node1="10" node2="11"/>
        <switch id="FVERGE1__SC12_0" name="_SC12_0" kind="DISCONNECTOR" retained="false" open="false" node1="0" node2="12"/>
        <switch id="FVERGE1__SC12_1" name="_SC12_1" kind="DISCONNECTOR" retained="false" open="true" node1="1" node2="12"/>
        <switch id="FVERGE1__SC13_0" name="_SC13_0" kind="DISCONNECTOR" retained="false" open="true" node1="0" node2="13"/>
        <switch id="FVERGE1__SC13_1" name="_SC13_1" kind="DISCONNECTOR" retained="false" open="false" node1="1" node2="13"/>
        <switch id="FVERGE1_FVERGE1_DJ_OMN" name="FVERGE1_DJ_OMN" kind="BREAKER" retained="false" open="false" node1="12" node2="13"/>
      </nodeBreakerTopology>
      <generator id="FVERGE11_G" energySource="THERMAL" minP="0" maxP="0" voltageRegulatorOn="true" targetP="0" targetQ="7.4815797805786133" targetV="406.45004272460938" node="3" p="-0">
        <property name="genreCvg" value="CHARBON"/>
        <reactiveCapabilityCurve>
          <point p="0" minQ="-200" maxQ="200"/>
          <point p="600" minQ="-200" maxQ="200"/>
        </reactiveCapabilityCurve>
      </generator>
    </voltageLevel>
  </substation>
  <line id="FP.AND1  FVERGE1  1" r="1" x="1" g1="0" b1="0" g2="0" b2="0" voltageLevelId1="FP.AND1" node1="3" voltageLevelId2="FVERGE1" node2="5" p1="48.000128568080498" p2="-48.000128568080498">
    <currentLimits1 permanentLimit="600">
      <temporaryLimit name="IT20" acceptableDuration="1200" value="650"/>
      <temporaryLimit name="IT10" acceptableDuration="600" value="700"/>
      <temporaryLimit name="IT0.0166667" acceptableDuration="1"/>
    </currentLimits1>
    <currentLimits2 permanentLimit="600"/>
  </line>
  <line id="FP.AND1  FVERGE1  2" r="2" x="1" g1="0" b1="0" g2="0" b2="0" voltageLevelId1="FP.AND1" node1="5" voltageLevelId2="FVERGE1" node2="7" p1="48.000128568080498" p2="-48.000128568080498">
    <currentLimits1 permanentLimit="600">
      <temporaryLimit name="IT20" acceptableDuration="1200" value="650"/>
      <temporaryLimit name="IT10" acceptableDuration="600" value="700"/>
      <temporaryLimit name="IT0.0166667" acceptableDuration="1"/>
    </currentLimits1>
    <currentLimits2 permanentLimit="600"/>
  </line>
  <line id="FS.BIS1  FVALDI1  1" r="3" x="1" g1="0" b1="0" g2="0" b2="0" voltageLevelId1="FS.BIS1" node1="3" voltageLevelId2="FVALDI1" node2="5" p1="144.00006428404029" p2="-144.00006428404029">
    <currentLimits1 permanentLimit="500.00006103515625">
      <temporaryLimit name="IT20" acceptableDuration="1200" value="500.00006103515625"/>
      <temporaryLimit name="IST" value="550" fictitious="true"/>
      <temporaryLimit name="IT10" acceptableDuration="600" value="600"/>
      <temporaryLimit name="IT0.0166667" acceptableDuration="1"/>
    </currentLimits1>
    <currentLimits2 permanentLimit="500.00006103515625"/>
  </line>
  <line id="FS.BIS1  FVALDI1  2" r="4" x="1" g1="0" b1="0" g2="0" b2="0" voltageLevelId1="FS.BIS1" node1="5" voltageLevelId2="FVALDI1" node2="7" p1="144.00006428404029" p2="-144.00006428404029">
    <currentLimits1 permanentLimit="500.00006103515625">
      <temporaryLimit name="IT20" acceptableDuration="1200" value="500.00006103515625"/>
      <temporaryLimit name="IST" value="550" fictitious="true"/>
      <temporaryLimit name="IT10" acceptableDuration="600" value="600"/>
      <temporaryLimit name="IT0.0166667" acceptableDuration="1"/>
    </currentLimits1>
    <currentLimits2 permanentLimit="500.00006103515625"/>
  </line>
  <line id="FS.BIS1 FSSV.O1 1" r="5" x="1" g1="0" b1="0" g2="0" b2="0" voltageLevelId1="FS.BIS1" node1="8" voltageLevelId2="FSSV.O1" node2="14" p1="-144.00006428404023" p2="144.00006428404023">
    <currentLimits1 permanentLimit="500.00006103515625">
      <temporaryLimit name="IT20" acceptableDuration="1200" value="500.00006103515625"/>
      <temporaryLimit name="IST" value="550" fictitious="true"/>
      <temporaryLimit name="IT10" acceptableDuration="600" value="600"/>
      <temporaryLimit name="IT0.0166667" acceptableDuration="1"/>
    </currentLimits1>
    <currentLimits2 permanentLimit="500.00006103515625"/>
  </line>
  <line id="FS.BIS1 FSSV.O1 2" r="6" x="1" g1="0" b1="0" g2="0" b2="0" voltageLevelId1="FS.BIS1" node1="10" voltageLevelId2="FSSV.O1" node2="16" p1="-144.00006428404023" p2="144.00006428404023">
    <currentLimits1 permanentLimit="500.00006103515625">
      <temporaryLimit name="IT20" acceptableDuration="1200" value="500.00006103515625"/>
      <temporaryLimit name="IST" value="550" fictitious="true"/>
      <temporaryLimit name="IT10" acceptableDuration="600" value="600"/>
      <temporaryLimit name="IT0.0166667" acceptableDuration="1"/>
    </currentLimits1>
    <currentLimits2 permanentLimit="500.00006103515625"/>
  </line>
  <line id="FSSV.O1  FP.AND1  1" r="7" x="1" g1="0" b1="0" g2="0" b2="0" voltageLevelId1="FSSV.O1" node1="5" voltageLevelId2="FP.AND1" node2="7" p1="95.999935715959751" p2="-95.999935715959751">
    <currentLimits1 permanentLimit="600">
      <temporaryLimit name="IT20" acceptableDuration="1200" value="650"/>
      <temporaryLimit name="IT10" acceptableDuration="600" value="700"/>
      <temporaryLimit name="IT0.0166667" acceptableDuration="1"/>
    </currentLimits1>
    <currentLimits2 permanentLimit="600"/>
  </line>
  <line id="FSSV.O1  FP.AND1  2" r="8" x="1" g1="0" b1="0" g2="0" b2="0" voltageLevelId1="FSSV.O1" node1="7" voltageLevelId2="FP.AND1" node2="9" p1="95.999935715959751" p2="-95.999935715959751">
    <currentLimits1 permanentLimit="600">
      <temporaryLimit name="IT20" acceptableDuration="1200" value="650"/>
      <temporaryLimit name="IT10" acceptableDuration="600" value="700"/>
      <temporaryLimit name="IT0.0166667" acceptableDuration="1"/>
    </currentLimits1>
    <currentLimits2 permanentLimit="600"/>
  </line>
  <line id="FTDPRA1  FVERGE1  1" r="9" x="1" g1="0" b1="0" g2="0" b2="0" voltageLevelId1="FTDPRA1" node1="3" voltageLevelId2="FVERGE1" node2="9" p1="-48.000128568080498" p2="48.000128568080498">
    <currentLimits1 permanentLimit="600">
      <temporaryLimit name="IT20" acceptableDuration="1200" value="650"/>
      <temporaryLimit name="IT10" acceptableDuration="600" value="700"/>
      <temporaryLimit name="IT0.0166667" acceptableDuration="1"/>
    </currentLimits1>
    <currentLimits2 permanentLimit="600"/>
  </line>
  <line id="FTDPRA1  FVERGE1  2" r="10" x="1" g1="0" b1="0" g2="0" b2="0" voltageLevelId1="FTDPRA1" node1="5" voltageLevelId2="FVERGE1" node2="11" p1="-48.000128568080498" p2="48.000128568080498">
    <currentLimits1 permanentLimit="600">
      <temporaryLimit name="IT20" acceptableDuration="1200" value="650"/>
      <temporaryLimit name="IT10" acceptableDuration="600" value="700"/>
      <temporaryLimit name="IT0.0166667" acceptableDuration="1"/>
    </currentLimits1>
    <currentLimits2 permanentLimit="600"/>
  </line>
  <line id="FVALDI1  FTDPRA1  1" r="11" x="1" g1="0" b1="0" g2="0" b2="0" voltageLevelId1="FVALDI1" node1="9" voltageLevelId2="FTDPRA1" node2="7" p1="-95.999935715959779" p2="95.999935715959779">
    <currentLimits1 permanentLimit="600">
      <temporaryLimit name="IT20" acceptableDuration="1200" value="650"/>
      <temporaryLimit name="IT10" acceptableDuration="600" value="700"/>
      <temporaryLimit name="IT0.0166667" acceptableDuration="1"/>
    </currentLimits1>
    <currentLimits2 permanentLimit="600"/>
  </line>
  <line id="FVALDI1  FTDPRA1  2" r="12" x="1" g1="0" b1="0" g2="0" b2="0" voltageLevelId1="FVALDI1" node1="11" voltageLevelId2="FTDPRA1" node2="9" p1="-95.999935715959779" p2="95.999935715959779">
    <currentLimits1 permanentLimit="600">
      <temporaryLimit name="IT20" acceptableDuration="1200" value="650"/>
      <temporaryLimit name="IT10" acceptableDuration="600" value="700"/>
      <temporaryLimit name="IT0.0166667" acceptableDuration="1"/>
    </currentLimits1>
    <currentLimits2 permanentLimit="600"/>
  </line>
  <hvdcLine id="HVDC1" r="0.25" nominalV="320" convertersMode="SIDE_1_RECTIFIER_SIDE_2_INVERTER" activePowerSetpoint="0" maxP="1011" converterStation1="FSSV.O1_FSSV.O1_HVDC1" converterStation2="FVALDI1_FVALDI1_HVDC1"/>
  <hvdcLine id="HVDC2" r="0.25" nominalV="320" convertersMode="SIDE_1_RECTIFIER_SIDE_2_INVERTER" activePowerSetpoint="0" maxP="1011" converterStation1="FSSV.O1_FSSV.O1_HVDC2" converterStation2="FVALDI1_FVALDI1_HVDC2"/>
  <extension id="HVDC2">
    <hapc:hvdcAngleDroopActivePowerControl p0="100" droop="180" enabled="false"/>
    <hopr:hvdcOperatorActivePowerRange fromCS1toCS2="1000." fromCS2toCS1="1000."/>
  </extension>
  <extension id="FVALDI11_L">
    <ld:detail fixedActivePower="400" fixedReactivePower="0" variableActivePower="70" variableReactivePower="0"/>
  </extension>

</network>
